REMARK  8 active torsions:
REMARK  status: ('A' for Active; 'I' for Inactive)
REMARK    1  A    between atoms: C_1  and  O_32 
REMARK    2  A    between atoms: C_4  and  C_7 
REMARK    3  A    between atoms: N_10  and  C_24 
REMARK    4  A    between atoms: C_11  and  C_12 
REMARK    5  A    between atoms: C_15  and  C_18 
REMARK    6  A    between atoms: C_19  and  C_20 
REMARK    7  A    between atoms: C_20  and  O_21 
REMARK    8  A    between atoms: C_27  and  O_30 
ROOT
HETATM    1  C   UNK A   4      87.728  55.345  43.205  1.00  0.00     0.065 C 
HETATM    2  C   UNK A   4      86.418  54.978  42.864  1.00  0.00     0.037 C 
HETATM    3  C   UNK A   4      85.328  55.750  43.299  1.00  0.00     0.017 C 
HETATM    4  C   UNK A   4      85.552  56.843  44.150  1.00  0.00    -0.003 C 
HETATM    5  C   UNK A   4      86.874  57.261  44.415  1.00  0.00     0.017 C 
HETATM    6  C   UNK A   4      87.966  56.519  43.933  1.00  0.00     0.037 C 
ENDROOT
BRANCH   1   7
HETATM    7  O   UNK A   4      88.756  54.551  42.828  1.00  0.00    -0.361 OA
HETATM    8  H   UNK A   4      88.423  53.643  42.996  1.00  0.00     0.217 HD
ENDBRANCH   1   7
BRANCH   4   9
HETATM    9  C   UNK A   4      84.491  57.441  44.804  1.00  0.00     0.120 A 
HETATM   10  C   UNK A   4      83.721  56.907  45.764  1.00  0.00     0.102 A 
HETATM   11  N   UNK A   4      83.211  57.968  46.383  1.00  0.00    -0.213 N 
HETATM   12  N   UNK A   4      83.698  59.002  45.840  1.00  0.00    -0.060 NA
HETATM   13  N   UNK A   4      84.430  58.709  44.907  1.00  0.00    -0.129 NA
BRANCH  10  14
HETATM   14  C   UNK A   4      83.881  55.627  46.342  1.00  0.00    -0.005 C 
HETATM   15  C   UNK A   4      84.077  54.481  45.531  1.00  0.00     0.014 C 
HETATM   16  C   UNK A   4      84.501  53.268  46.093  1.00  0.00     0.012 C 
HETATM   17  C   UNK A   4      84.712  53.164  47.486  1.00  0.00    -0.036 C 
HETATM   18  C   UNK A   4      84.359  54.240  48.320  1.00  0.00     0.012 C 
HETATM   19  C   UNK A   4      83.970  55.466  47.751  1.00  0.00     0.014 C 
BRANCH  17  20
HETATM   20  C   UNK A   4      85.274  52.020  48.020  1.00  0.00     0.018 C 
HETATM   21  C   UNK A   4      86.426  51.498  47.551  1.00  0.00     0.082 C 
BRANCH  21  22
HETATM   22  C   UNK A   4      86.885  50.252  47.909  1.00  0.00     0.165 C 
HETATM   23  O   UNK A   4      88.186  50.072  48.247  1.00  0.00    -0.647 OA
BRANCH  22  24
HETATM   24  O   UNK A   4      86.092  49.167  47.742  1.00  0.00    -0.773 OA
HETATM   25  H   UNK A   4      86.450  48.274  47.895  1.00  0.00     0.167 HD
ENDBRANCH  22  24
ENDBRANCH  21  22
ENDBRANCH  17  20
ENDBRANCH  10  14
BRANCH  11  26
HETATM   26  C   UNK A   4      82.228  58.067  47.318  1.00  0.00     0.060 A 
HETATM   27  C   UNK A   4      81.062  57.266  47.277  1.00  0.00     0.034 A 
HETATM   28  C   UNK A   4      80.013  57.476  48.190  1.00  0.00     0.039 A 
HETATM   29  C   UNK A   4      80.116  58.480  49.176  1.00  0.00     0.065 A 
HETATM   30  C   UNK A   4      81.299  59.244  49.264  1.00  0.00     0.039 A 
HETATM   31  C   UNK A   4      82.342  59.033  48.348  1.00  0.00     0.034 A 
BRANCH  29  32
HETATM   32  O   UNK A   4      79.092  58.691  50.042  1.00  0.00    -0.361 OA
HETATM   33  H   UNK A   4      79.122  59.649  50.256  1.00  0.00     0.217 HD
ENDBRANCH  29  32
ENDBRANCH  11  26
ENDBRANCH   4   9
TORSDOF 8
